Circuit: * G:\My Drive\PCBs\17-0001 SAGE DETECT\simulation\SimpleAmpCircuit.asc

WARNING: Specified period is not longer than the sum of Trise, Tfall, and Ton for i1.  Increasing period to 0.002
Limiting fall time of source i1 to 3.90313e-019
Direct Newton iteration failed to find .op point.  (Use ".option noopiter" to skip.)
Starting Gmin stepping
Gmin = 10
Gmin = 1.07374
Gmin = 0.115292
Gmin = 0.0123794
Gmin = 0.00132923
Gmin = 0.000142725
Gmin = 1.5325e-005
Gmin = 1.6455e-006
vernier = 0.5
vernier = 0.25
vernier = 0.125
Gmin = 5.9911e-007
vernier = 0.0625
vernier = 0.03125
vernier = 0.0416667
Gmin = 5.58607e-007
vernier = 0.0555555
vernier = 0.074074
Gmin = 4.89434e-007
vernier = 0.0987653
Gmin = 3.95261e-007
vernier = 0.131687
vernier = 0.175583
Gmin = 2.792e-007
vernier = 0.23411
vernier = 0.312147
Gmin = 1.61844e-007
vernier = 0.416196
Gmin = 6.77622e-008
vernier = 0.554928
vernier = 0.739903
Gmin = 1.69177e-008
vernier = 0.986537
vernier = 1
Gmin = 2.16705e-009
Gmin = 2.32685e-010
Gmin = 2.49844e-011
Gmin = 2.68268e-012
Gmin = 2.8805e-013
Gmin = 0
Gmin stepping succeeded in finding the operating point.


Date: Mon Mar 06 10:45:57 2023
Total elapsed time: 0.255 seconds.

tnom = 27
temp = 27
method = modified trap
totiter = 3770
traniter = 2520
tranpoints = 1259
accept = 1183
rejected = 76
matrix size = 30
fillins = 45
solver = Normal
Thread vector: 13.9/7.2[2] 2.4/3.0[1] 1.3/2.3[1] 0.2/1.2[1]  2592/500
Matrix Compiler1: 3.50 KB object code size  1.2/0.7/[0.3]
Matrix Compiler2: 3.75 KB object code size  0.4/0.7/[0.4]

