Circuit: * G:\My Drive\PCBs\17-0001 SAGE DETECT\simulation\voltageFollower.asc

Direct Newton iteration failed to find .op point.  (Use ".option noopiter" to skip.)
Starting Gmin stepping
Gmin = 10
Gmin = 1.07374
Gmin = 0.115292
Gmin = 0.0123794
Gmin = 0.00132923
Gmin = 0.000142725
Gmin = 1.5325e-005
vernier = 0.5
vernier = 0.25
vernier = 0.125
vernier = 0.0625
vernier = 0.03125
Gmin = 6.2771e-006
vernier = 0.015625
vernier = 0.0078125
vernier = 0.0104167
Gmin = 6.16785e-006
vernier = 0.0138889
vernier = 0.0185185
Gmin = 5.96633e-006
vernier = 0.0246913
Gmin = 5.65346e-006
vernier = 0.0329218
vernier = 0.0438957
Gmin = 5.17682e-006
vernier = 0.0585276
vernier = 0.0780367
Gmin = 4.50403e-006
vernier = 0.104049
Gmin = 3.59652e-006
vernier = 0.138732
vernier = 0.184976
Gmin = 2.49452e-006
vernier = 0.246634
vernier = 0.328846
Gmin = 1.40562e-006
vernier = 0.438461
Gmin = 5.62917e-007
vernier = 0.584614
vernier = 0.779486
Gmin = 1.31175e-007
vernier = 1
Gmin = 1.61257e-008
Gmin = 1.73148e-009
Gmin = 1.85916e-010
Gmin = 1.99626e-011
Gmin = 2.14347e-012
Gmin = 2.30153e-013
Gmin = 0
Gmin stepping succeeded in finding the operating point.


Date: Mon Mar 06 12:09:41 2023
Total elapsed time: 0.264 seconds.

tnom = 27
temp = 27
method = modified trap
totiter = 3607
traniter = 2082
tranpoints = 1042
accept = 1042
rejected = 0
matrix size = 29
fillins = 48
solver = Normal
Thread vector: 10.0/7.0[2] 3.1/2.5[2] 1.5/1.6[1] 0.2/1.1[1]  2592/500
Matrix Compiler1: 3.39 KB object code size  1.0/0.7/[0.3]
Matrix Compiler2: 3.67 KB object code size  0.4/0.6/[0.3]

